LAMMPS (29 Sep 2021 - Update 2)
# 2d indenter simulation

dimension	2
boundary	p s p

atom_style	atomic
neighbor	0.3 bin
neigh_modify	delay 5

# create geometry

lattice		hex 0.9
Lattice spacing in x,y,z = 1.1326962 1.9618873 1.1326962
region		box block 0 20 0 10 -0.25 0.25
create_box	2 box
Created orthogonal box = (0.0000000 0.0000000 -0.28317404) to (22.653923 19.618873 0.28317404)
create_atoms	1 box
Created 420 atoms

mass		1 1.0
mass		2 1.0

# LJ potentials

pair_style	lj/cut 2.5
pair_coeff	* * 1.0 1.0 2.5

# define groups

region	        1 block INF INF INF 1.25 INF INF
group		lower region 1
60 atoms in group lower
group		mobile subtract all lower
360 atoms in group mobile
set		group lower type 2
Setting atom values ...
  60 settings made for type

# initial velocities

compute	  	new mobile temp
velocity	mobile create 0.3 482748 temp new
fix		1 all nve
fix		2 lower setforce 0.0 0.0 0.0
fix		3 all temp/rescale 100 0.1 0.1 0.01 1.0

# run with indenter

timestep	0.003
variable	k equal 1000.0/xlat
variable        y equal "13.0*ylat - step*dt*0.02*ylat"

fix		4 all indent $k sphere 10 v_y 0 5.0
fix		4 all indent 882.849286914813 sphere 10 v_y 0 5.0
fix		5 all enforce2d

thermo		1000
thermo_modify	temp new

dump		1 all atom 250 dump.indent

#dump		2 all image 1000 image.*.jpg type type #		zoom 1.6 adiam 1.5
#dump_modify	2 pad 5

#dump		3 all movie 1000 movie.mpg type type #		zoom 1.6 adiam 1.5
#dump_modify	3 pad 5

run		30000
  update every 1 steps, delay 5 steps, check yes
Step Temp E_pair E_mol TotEng Press Volume
0          0.3   -3.1727576            0    -2.916329   -1.3554261    444.53333
Averages over the last 16 of 31 rows, steps 15000 to 30000:
Temp E_pair E_mol TotEng Press Volume
0.118716 -3.0186 0 -2.91713 1.13262 465.331
Loop time of 0.849905 on 4 procs for 30000 steps with 420 atoms

# run without indenter

unfix           4
run		30000
Step Temp E_pair E_mol TotEng Press Volume
30000    0.1152307   -2.9777511            0   -2.8792563    1.9063303    469.47338
Averages over the last 16 of 31 rows, steps 45000 to 60000:
Temp E_pair E_mol TotEng Press Volume
0.119153 -3.07744 0 -2.97559 -0.33932 466.187
Loop time of 0.697649 on 4 procs for 30000 steps with 420 atoms
