LAMMPS (29 Sep 2021 - Update 2)
# 2d micelle simulation

dimension	2

neighbor	0.3 bin
neigh_modify	delay 5

atom_style	bond

# Soft potential push-off

read_data	data.micelle
Reading data file ...
  orthogonal box = (0.0000000 0.0000000 -0.10000000) to (35.856860 35.856860 0.10000000)
  reading atoms ...
  1200 atoms
  scanning bonds ...
  reading bonds ...
  300 bonds
Finding 1-2 1-3 1-4 neighbors ...
     2 = max # of 1-2 neighbors
     1 = max # of 1-3 neighbors
     1 = max # of 1-4 neighbors
     2 = max # of special neighbors
special_bonds	fene
Finding 1-2 1-3 1-4 neighbors ...
     2 = max # of 1-2 neighbors
     2 = max # of special neighbors

pair_style	soft 1.12246
pair_coeff	* * 0.0 1.12246

bond_style 	harmonic
bond_coeff	1 50.0 0.75

velocity	all create 0.45 2349852

variable	prefactor equal ramp(1.0,20.0)

fix		1 all nve
fix		2 all temp/rescale 100 0.45 0.45 0.02 1.0
fix		3 all adapt 1 pair soft a * * v_prefactor
fix		4 all enforce2d

thermo		50
run		1000
  update every 1 steps, delay 5 steps, check yes
Step Temp E_pair E_mol TotEng Press
0         0.45   0.40003481 2.2200223e-06   0.84966203   0.78952518
Averages over the last 11 of 21 rows, steps 500 to 1000:
Temp E_pair E_mol TotEng Press
0.482152 0.519869 0.0894584 1.09108 5.4066
Loop time of 0.052228 on 4 procs for 1000 steps with 1200 atoms

unfix		3

# Main run

pair_style	lj/cut 2.5

# solvent/head - full-size and long-range

pair_coeff	1 1 0.2 1.0 2.5
pair_coeff	2 2 0.2 1.0 2.5
pair_coeff	1 2 0.2 1.0 2.5

# tail/tail - size-averaged and long-range

pair_coeff	3 3 0.2 0.75 2.5
pair_coeff	4 4 0.2 0.50 2.5
pair_coeff	3 4 0.2 0.67 2.5

# solvent/tail - full-size and repulsive

pair_coeff	1 3 0.2 1.0 1.12246
pair_coeff	1 4 0.2 1.0 1.12246

# head/tail - size-averaged and repulsive

pair_coeff	2 3 0.2 0.88 1.12246
pair_coeff	2 4 0.2 0.75 1.12246

thermo		50

dump		1 all atom 200 dump.micelle

#dump		2 all image 2000 image.*.jpg type type zoom 1.6
#dump_modify	2 pad 5 adiam 1 0.5 adiam 2 1.5 adiam 3 1.0 adiam 4 0.75

#dump		3 all movie 2000 movie.mpg type type zoom 1.6
#dump_modify	3 pad 5 adiam 1 0.5 adiam 2 1.5 adiam 3 1.0 adiam 4 0.75

reset_timestep	0
run		100000
  update every 1 steps, delay 5 steps, check yes
Step Temp E_pair E_mol TotEng Press
0         0.45  -0.34112326   0.08808163   0.19658337    1.3647331
Averages over the last 1001 of 2001 rows, steps 50000 to 100000:
Temp E_pair E_mol TotEng Press
0.451478 -0.2462 0.0593444 0.264246 1.89628
Loop time of 6.58355 on 4 procs for 100000 steps with 1200 atoms
